[General]
network = LoRaMotoMesh
rng-class = "cMersenneTwister"
seed-set = ${repetition}
simtime-resolution = -11

[Config UCAmI2019-Calibration-playground]
# experiment repetitions
#repeat=2

# network features
**.numberOfGateways = 1
**.loRaGW[*].numUdpApps = 1
**.loRaGW[*].packetForwarder.localPort = 2000
**.loRaGW[*].packetForwarder.destPort = 1000
**.loRaGW[*].packetForwarder.destAddresses = "networkServer"

**.networkServer.numUdpApps = 1
**.networkServer.**.evaluateADRinServer = false
**.networkServer.**.acknowledgePackets = true
**.networkServer.udpApp[0].typename = "NetworkServerApp"
**.networkServer.udpApp[0].destPort = 2000
**.networkServer.udpApp[0].localPort = 1000
**.networkServer.udpApp[0].adrMethod = "avg"

**.numberOfNodes = 1
**.numberOfCalibrationPacketsToSend = 5 #0 means infinite number of packets until calibration period ends
**.numberOfDataPacketsToSend = 2 #0 means infinite number of packets until simulation period ends
**.numberOfForwardedPacketsToSend = 3
**.packetForwarding = 1
**.numberOfHops = 1
**.requestACKfromApp = false
**.stopOnACK = false
**.stopOnCAL = false
**.increaseSF = false
**.packetsPerSF = 1

# simulation timing
**.calibrationPeriod = 24h
**.timeToFirstCalibrationPacket = uniform(0s, 3600s)
**.timeToNextCalibrationPacket = uniform(0s, 3600s)
**.timeToFirstDataPacket = uniform(0s, 120s)
**.timeToNextDataPacket = uniform(0s, 300s)
sim-time-limit = 25h
warmup-period = 1h

**.alohaChannelModel = false

#nodes features
**.loRaNodes[*].**.initFromDisplayString = false
**.loRaNodes[*].**.evaluateADRinNode = false
**.loRaNodes[*].**initialLoRaSF = intuniform(10,10)
**.loRaNodes[*].**initialLoRaBW = 125 kHz
**.loRaNodes[*].**initialLoRaCR = 4
**.loRaNodes[*].**initialLoRaTP = 17dBm

# random deployment of nodes in a rectangular area
**.loRaNodes[*].**.initialX = uniform(0m, 4m)
**.loRaNodes[*].**.initialY = uniform(100m, 600m)

#gateway features
**.LoRaGWNic.radio.iAmGateway = true
**.loRaGW[*].**.initFromDisplayString = false
**.loRaGW[*].**.initialX = uniform(0m, 4m)
**.loRaGW[*].**.initialY = uniform(0m, 5m)

#power consumption features
**.loRaNodes[*].LoRaNic.radio.energyConsumerType = "LoRaEnergyConsumer"
**.loRaNodes[*].**.energySourceModule = "IdealEpEnergyStorage"
**.loRaNodes[*].LoRaNic.radio.energyConsumer.configFile = xmldoc("energyConsumptionParameters.xml")

#general features
**.sigma = 0
**.constraintAreaMinX = 0m
**.constraintAreaMinY = 0m
**.constraintAreaMinZ = 0m
**.constraintAreaMaxX = 1400m
**.constraintAreaMaxY = 2500m
**.constraintAreaMaxZ = 0m

LoRaMotoMesh.**.radio.separateTransmissionParts = false
LoRaMotoMesh.**.radio.separateReceptionParts = false

**.delayer.config = xmldoc("cloudDelays.xml")
**.radio.radioMediumModule = "LoRaMedium"
**.LoRaMedium.pathLossType = "LoRaLogNormalShadowing"
**.minInterferenceTime = 0s
**.displayAddresses = false
