[General]
network = LoRaMotoMesh
rng-class = "cMersenneTwister"
seed-set = ${repetition}
simtime-resolution = -11

[Config UCAmI2019-singleSF]
repeat = 10
# network features
#**.numberOfGateways = ${numberOfGateways= 1, 2, 3, 4, 5, 6, 8, 10, 12, 16, 20, 24, 32, 40, 48, 64, 80, 100, 128, 160, 192, 256, 320, 384, 512, 640, 768, 1000} #28
**.numberOfGateways = 0
**.loRaGW[*].numUdpApps = 1
**.loRaGW[*].packetForwarder.localPort = 2000
**.loRaGW[*].packetForwarder.destPort = 1000
**.loRaGW[*].packetForwarder.destAddresses = "networkServer"

**.networkServer.numUdpApps = 1
**.networkServer.**.evaluateADRinServer = false
**.networkServer.**.acknowledgePackets = true
**.networkServer.udpApp[0].typename = "NetworkServerApp"
**.networkServer.udpApp[0].destPort = 2000
**.networkServer.udpApp[0].localPort = 1000
**.networkServer.udpApp[0].adrMethod = "avg"

**.numberOfNodes = ${100, 135, 180, 240, 315, 420, 565, 750, 1000}#, 1350, 1800, 2400, 3150, 4200, 5650}#, 7500, 10000, 13500, 18000, 24000}
#**.numberOfNodes = 2

**.numberOfDestinationsPerNode = 10 #it should be smaller than numberOfNodes
**.numberOfPacketsPerDestination = 2

**.numberOfPacketsToForward = 0
**.packetForwarding = 0
**.maxHops = 10

**.requestACKfromDestination = false
**.stopOnACK = false
**.increaseSF = false

sim-time-limit = 6h
warmup-period = 1h

**.timeToFirstPacket = 3600s+uniform(0s, 300s)
#**.timeToNextPacket = ${timeToNextPacket= uniform(0s, 660s), uniform(0s, 720s), uniform(0s, 780s), uniform(0s, 840s), uniform(0s, 900s), uniform(0s, 960s), uniform(0s, 1020s), uniform(0s, 1080s), uniform(0s, 1140s), uniform(0s, 1200s)}
**.timeToNextPacket = uniform(0s, 300s)
**.alohaChannelModel = false

#nodes features
**.loRaNodes[*].**.initFromDisplayString = false
**.loRaNodes[*].**.evaluateADRinNode = false
**.loRaNodes[*].**initialLoRaSF = intuniform(7,7)
#**.loRaNodes[*].**initialLoRaSF = ${initialLoRaSF = 7, 8, 9, 10, 11, 12, intuniform(7,8), intuniform(7,9), intuniform(7,10), intuniform(7,11), intuniform(7,12), intuniform(8,9), intuniform(8,10), intuniform(8,11), intuniform(8,12), intuniform(9,10), intuniform(9,11), intuniform(9,12), intuniform(10,11), intuniform(10,12), intuniform(11,12) } #21
**.loRaNodes[*].**initialLoRaBW = 125 kHz
**.loRaNodes[*].**initialLoRaCR = 4
**.loRaNodes[*].**initialLoRaTP = 10dBm + 3dBm*intuniform(4, 4)
**.loRaNodes[*].**initialLoRaCAD = false
**.loRaNodes[*].**initialLoRaCADatt = 0dB

# deployment of nodes in a circle with radius=maxGatewayDistance and gateway at gatewayX,gatewayY
#**.loRaNodes[*].deploymentType = "circle"
#**.loRaNodes[*].maxGatewayDistance = 120.0
#**.loRaNodes[*].gatewayX = 240
#**.loRaNodes[*].gatewayY = 240

# random deployment of nodes in a rectangular area
**.loRaNodes[*].**.initialX = uniform(0m, 1000m)
**.loRaNodes[*].**.initialY = uniform(0m, 1000m)

#gateway features
**.LoRaGWNic.radio.iAmGateway = true
**.loRaGW[*].**.initFromDisplayString = false
**.loRaGW[*].**.initialX = uniform(0m, 140m)
**.loRaGW[*].**.initialY = uniform(0m, 1000m)

#power consumption features
**.loRaNodes[*].LoRaNic.radio.energyConsumerType = "LoRaEnergyConsumer"
**.loRaNodes[*].**.energySourceModule = "IdealEpEnergyStorage"
**.loRaNodes[*].LoRaNic.radio.energyConsumer.configFile = xmldoc("energyConsumptionParameters.xml")

#general features
**.sigma = 0
**.constraintAreaMinX = 0m
**.constraintAreaMinY = 0m
**.constraintAreaMinZ = 0m
**.constraintAreaMaxX = 1400m
**.constraintAreaMaxY = 1000m
**.constraintAreaMaxZ = 0m

LoRaMotoMesh.**.radio.separateTransmissionParts = false
LoRaMotoMesh.**.radio.separateReceptionParts = false

**.delayer.config = xmldoc("cloudDelays.xml")
**.radio.radioMediumModule = "LoRaMedium"
**.LoRaMedium.pathLossType = "LoRaLogNormalShadowing"
**.minInterferenceTime = 0s
**.displayAddresses = false




[Config UCAmI2019-CAD-SingleSF-0dB]
repeat = 10
# network features
#**.numberOfGateways = ${numberOfGateways= 1, 2, 3, 4, 5, 6, 8, 10, 12, 16, 20, 24, 32, 40, 48, 64, 80, 100, 128, 160, 192, 256, 320, 384, 512, 640, 768, 1000} #28
**.numberOfGateways = 0
**.loRaGW[*].numUdpApps = 1
**.loRaGW[*].packetForwarder.localPort = 2000
**.loRaGW[*].packetForwarder.destPort = 1000
**.loRaGW[*].packetForwarder.destAddresses = "networkServer"

**.networkServer.numUdpApps = 1
**.networkServer.**.evaluateADRinServer = false
**.networkServer.**.acknowledgePackets = true
**.networkServer.udpApp[0].typename = "NetworkServerApp"
**.networkServer.udpApp[0].destPort = 2000
**.networkServer.udpApp[0].localPort = 1000
**.networkServer.udpApp[0].adrMethod = "avg"

**.numberOfNodes = ${100, 135, 180, 240, 315, 420, 565, 750, 1000}#, 1350, 1800, 2400, 3150, 4200, 5650}#, 7500, 10000, 13500, 18000, 24000}
#**.numberOfNodes = 2

**.numberOfDestinationsPerNode = 10 #it should be smaller than numberOfNodes
**.numberOfPacketsPerDestination = 2

**.numberOfPacketsToForward = 0
**.packetForwarding = 0
**.maxHops = 10

**.requestACKfromDestination = false
**.stopOnACK = false
**.increaseSF = false

sim-time-limit = 6h
warmup-period = 1h

**.timeToFirstPacket = 3600s+uniform(0s, 300s)
#**.timeToNextPacket = ${timeToNextPacket= uniform(0s, 660s), uniform(0s, 720s), uniform(0s, 780s), uniform(0s, 840s), uniform(0s, 900s), uniform(0s, 960s), uniform(0s, 1020s), uniform(0s, 1080s), uniform(0s, 1140s), uniform(0s, 1200s)}
**.timeToNextPacket = uniform(0s, 300s)
**.alohaChannelModel = false

#nodes features
**.loRaNodes[*].**.initFromDisplayString = false
**.loRaNodes[*].**.evaluateADRinNode = false
**.loRaNodes[*].**initialLoRaSF = intuniform(7,7)
#**.loRaNodes[*].**initialLoRaSF = ${initialLoRaSF = 7, 8, 9, 10, 11, 12, intuniform(7,8), intuniform(7,9), intuniform(7,10), intuniform(7,11), intuniform(7,12), intuniform(8,9), intuniform(8,10), intuniform(8,11), intuniform(8,12), intuniform(9,10), intuniform(9,11), intuniform(9,12), intuniform(10,11), intuniform(10,12), intuniform(11,12) } #21
**.loRaNodes[*].**initialLoRaBW = 125 kHz
**.loRaNodes[*].**initialLoRaCR = 4
**.loRaNodes[*].**initialLoRaTP = 10dBm + 3dBm*intuniform(4, 4)
**.loRaNodes[*].**initialLoRaCAD = true
**.loRaNodes[*].**initialLoRaCADatt = 0dB

# deployment of nodes in a circle with radius=maxGatewayDistance and gateway at gatewayX,gatewayY
#**.loRaNodes[*].deploymentType = "circle"
#**.loRaNodes[*].maxGatewayDistance = 120.0
#**.loRaNodes[*].gatewayX = 240
#**.loRaNodes[*].gatewayY = 240

# random deployment of nodes in a rectangular area
**.loRaNodes[*].**.initialX = uniform(0m, 1000m)
**.loRaNodes[*].**.initialY = uniform(0m, 1000m)

#gateway features
**.LoRaGWNic.radio.iAmGateway = true
**.loRaGW[*].**.initFromDisplayString = false
**.loRaGW[*].**.initialX = uniform(0m, 140m)
**.loRaGW[*].**.initialY = uniform(0m, 1000m)

#power consumption features
**.loRaNodes[*].LoRaNic.radio.energyConsumerType = "LoRaEnergyConsumer"
**.loRaNodes[*].**.energySourceModule = "IdealEpEnergyStorage"
**.loRaNodes[*].LoRaNic.radio.energyConsumer.configFile = xmldoc("energyConsumptionParameters.xml")

#general features
**.sigma = 0
**.constraintAreaMinX = 0m
**.constraintAreaMinY = 0m
**.constraintAreaMinZ = 0m
**.constraintAreaMaxX = 1400m
**.constraintAreaMaxY = 1000m
**.constraintAreaMaxZ = 0m

LoRaMotoMesh.**.radio.separateTransmissionParts = false
LoRaMotoMesh.**.radio.separateReceptionParts = false

**.delayer.config = xmldoc("cloudDelays.xml")
**.radio.radioMediumModule = "LoRaMedium"
**.LoRaMedium.pathLossType = "LoRaLogNormalShadowing"
**.minInterferenceTime = 0s
**.displayAddresses = false





[Config UCAmI2019-CAD-SingleSF-0-10dB]
repeat = 10
# network features
#**.numberOfGateways = ${numberOfGateways= 1, 2, 3, 4, 5, 6, 8, 10, 12, 16, 20, 24, 32, 40, 48, 64, 80, 100, 128, 160, 192, 256, 320, 384, 512, 640, 768, 1000} #28
**.numberOfGateways = 0
**.loRaGW[*].numUdpApps = 1
**.loRaGW[*].packetForwarder.localPort = 2000
**.loRaGW[*].packetForwarder.destPort = 1000
**.loRaGW[*].packetForwarder.destAddresses = "networkServer"

**.networkServer.numUdpApps = 1
**.networkServer.**.evaluateADRinServer = false
**.networkServer.**.acknowledgePackets = true
**.networkServer.udpApp[0].typename = "NetworkServerApp"
**.networkServer.udpApp[0].destPort = 2000
**.networkServer.udpApp[0].localPort = 1000
**.networkServer.udpApp[0].adrMethod = "avg"

**.numberOfNodes = ${100, 135, 180, 240, 315, 420, 565, 750, 1000}#, 1350, 1800, 2400, 3150, 4200, 5650}#, 7500, 10000, 13500, 18000, 24000}
#**.numberOfNodes = 2

**.numberOfDestinationsPerNode = 10 #it should be smaller than numberOfNodes
**.numberOfPacketsPerDestination = 2

**.numberOfPacketsToForward = 0
**.packetForwarding = 0
**.maxHops = 10

**.requestACKfromDestination = false
**.stopOnACK = false
**.increaseSF = false

sim-time-limit = 6h
warmup-period = 1h

**.timeToFirstPacket = 3600s+uniform(0s, 300s)
#**.timeToNextPacket = ${timeToNextPacket= uniform(0s, 660s), uniform(0s, 720s), uniform(0s, 780s), uniform(0s, 840s), uniform(0s, 900s), uniform(0s, 960s), uniform(0s, 1020s), uniform(0s, 1080s), uniform(0s, 1140s), uniform(0s, 1200s)}
**.timeToNextPacket = uniform(0s, 300s)
**.alohaChannelModel = false

#nodes features
**.loRaNodes[*].**.initFromDisplayString = false
**.loRaNodes[*].**.evaluateADRinNode = false
**.loRaNodes[*].**initialLoRaSF = intuniform(7,7)
#**.loRaNodes[*].**initialLoRaSF = ${initialLoRaSF = 7, 8, 9, 10, 11, 12, intuniform(7,8), intuniform(7,9), intuniform(7,10), intuniform(7,11), intuniform(7,12), intuniform(8,9), intuniform(8,10), intuniform(8,11), intuniform(8,12), intuniform(9,10), intuniform(9,11), intuniform(9,12), intuniform(10,11), intuniform(10,12), intuniform(11,12) } #21
**.loRaNodes[*].**initialLoRaBW = 125 kHz
**.loRaNodes[*].**initialLoRaCR = 4
**.loRaNodes[*].**initialLoRaTP = 10dBm + 3dBm*intuniform(4, 4)
**.loRaNodes[*].**initialLoRaCAD = true
**.loRaNodes[*].**initialLoRaCADatt = ${initialLoRaCADatt = 0dB, 1dB, 2dB, 3dB, 4dB, 5dB, 6dB, 7dB, 8dB, 9dB, 10dB}

# deployment of nodes in a circle with radius=maxGatewayDistance and gateway at gatewayX,gatewayY
#**.loRaNodes[*].deploymentType = "circle"
#**.loRaNodes[*].maxGatewayDistance = 120.0
#**.loRaNodes[*].gatewayX = 240
#**.loRaNodes[*].gatewayY = 240

# random deployment of nodes in a rectangular area
**.loRaNodes[*].**.initialX = uniform(0m, 1000m)
**.loRaNodes[*].**.initialY = uniform(0m, 1000m)

#gateway features
**.LoRaGWNic.radio.iAmGateway = true
**.loRaGW[*].**.initFromDisplayString = false
**.loRaGW[*].**.initialX = uniform(0m, 1000m)
**.loRaGW[*].**.initialY = uniform(0m, 1000m)

#power consumption features
**.loRaNodes[*].LoRaNic.radio.energyConsumerType = "LoRaEnergyConsumer"
**.loRaNodes[*].**.energySourceModule = "IdealEpEnergyStorage"
**.loRaNodes[*].LoRaNic.radio.energyConsumer.configFile = xmldoc("energyConsumptionParameters.xml")

#general features
**.sigma = 0
**.constraintAreaMinX = 0m
**.constraintAreaMinY = 0m
**.constraintAreaMinZ = 0m
**.constraintAreaMaxX = 1000m
**.constraintAreaMaxY = 1000m
**.constraintAreaMaxZ = 0m

LoRaMotoMesh.**.radio.separateTransmissionParts = false
LoRaMotoMesh.**.radio.separateReceptionParts = false

**.delayer.config = xmldoc("cloudDelays.xml")
**.radio.radioMediumModule = "LoRaMedium"
**.LoRaMedium.pathLossType = "LoRaLogNormalShadowing"
**.minInterferenceTime = 0s
**.displayAddresses = false




[Config UCAmI2019-CAD-MultiSF-10dB]
repeat = 10
# network features
#**.numberOfGateways = ${numberOfGateways= 1, 2, 3, 4, 5, 6, 8, 10, 12, 16, 20, 24, 32, 40, 48, 64, 80, 100, 128, 160, 192, 256, 320, 384, 512, 640, 768, 1000} #28
**.numberOfGateways = 0
**.loRaGW[*].numUdpApps = 1
**.loRaGW[*].packetForwarder.localPort = 2000
**.loRaGW[*].packetForwarder.destPort = 1000
**.loRaGW[*].packetForwarder.destAddresses = "networkServer"

**.networkServer.numUdpApps = 1
**.networkServer.**.evaluateADRinServer = false
**.networkServer.**.acknowledgePackets = true
**.networkServer.udpApp[0].typename = "NetworkServerApp"
**.networkServer.udpApp[0].destPort = 2000
**.networkServer.udpApp[0].localPort = 1000
**.networkServer.udpApp[0].adrMethod = "avg"

**.numberOfNodes = ${100, 135, 180, 240, 315, 420, 565, 750, 1000}#, 1350, 1800, 2400, 3150, 4200, 5650}#, 7500, 10000, 13500, 18000, 24000}
#**.numberOfNodes = 2

**.numberOfDestinationsPerNode = 10 #it should be smaller than numberOfNodes
**.numberOfPacketsPerDestination = 2

**.numberOfPacketsToForward = 0
**.packetForwarding = 0
**.maxHops = 10

**.requestACKfromDestination = false
**.stopOnACK = false
**.increaseSF = false

sim-time-limit = 6h
warmup-period = 1h

**.timeToFirstPacket = 3600s+uniform(0s, 300s)
#**.timeToNextPacket = ${timeToNextPacket= uniform(0s, 660s), uniform(0s, 720s), uniform(0s, 780s), uniform(0s, 840s), uniform(0s, 900s), uniform(0s, 960s), uniform(0s, 1020s), uniform(0s, 1080s), uniform(0s, 1140s), uniform(0s, 1200s)}
**.timeToNextPacket = uniform(0s, 300s)
**.alohaChannelModel = false

#nodes features
**.loRaNodes[*].**.initFromDisplayString = false
**.loRaNodes[*].**.evaluateADRinNode = false
**.loRaNodes[*].**initialLoRaSF = ${initialLoRaSF = intuniform(7,8), intuniform(7,9), intuniform(7,10), intuniform(7,11), intuniform(7,12)}
#**.loRaNodes[*].**initialLoRaSF = ${initialLoRaSF = 7, 8, 9, 10, 11, 12, intuniform(7,8), intuniform(7,9), intuniform(7,10), intuniform(7,11), intuniform(7,12), intuniform(8,9), intuniform(8,10), intuniform(8,11), intuniform(8,12), intuniform(9,10), intuniform(9,11), intuniform(9,12), intuniform(10,11), intuniform(10,12), intuniform(11,12) } #21
**.loRaNodes[*].**initialLoRaBW = 125 kHz
**.loRaNodes[*].**initialLoRaCR = 4
**.loRaNodes[*].**initialLoRaTP = 10dBm + 3dBm*intuniform(4, 4)
**.loRaNodes[*].**initialLoRaCAD = true
**.loRaNodes[*].**initialLoRaCADatt = 10dB

# deployment of nodes in a circle with radius=maxGatewayDistance and gateway at gatewayX,gatewayY
#**.loRaNodes[*].deploymentType = "circle"
#**.loRaNodes[*].maxGatewayDistance = 120.0
#**.loRaNodes[*].gatewayX = 240
#**.loRaNodes[*].gatewayY = 240

# random deployment of nodes in a rectangular area
**.loRaNodes[*].**.initialX = uniform(0m, 1000m)
**.loRaNodes[*].**.initialY = uniform(0m, 1000m)

#gateway features
**.LoRaGWNic.radio.iAmGateway = true
**.loRaGW[*].**.initFromDisplayString = false
**.loRaGW[*].**.initialX = uniform(0m, 1000m)
**.loRaGW[*].**.initialY = uniform(0m, 1000m)

#power consumption features
**.loRaNodes[*].LoRaNic.radio.energyConsumerType = "LoRaEnergyConsumer"
**.loRaNodes[*].**.energySourceModule = "IdealEpEnergyStorage"
**.loRaNodes[*].LoRaNic.radio.energyConsumer.configFile = xmldoc("energyConsumptionParameters.xml")

#general features
**.sigma = 0
**.constraintAreaMinX = 0m
**.constraintAreaMinY = 0m
**.constraintAreaMinZ = 0m
**.constraintAreaMaxX = 1000m
**.constraintAreaMaxY = 1000m
**.constraintAreaMaxZ = 0m

LoRaMotoMesh.**.radio.separateTransmissionParts = false
LoRaMotoMesh.**.radio.separateReceptionParts = false

**.delayer.config = xmldoc("cloudDelays.xml")
**.radio.radioMediumModule = "LoRaMedium"
**.LoRaMedium.pathLossType = "LoRaLogNormalShadowing"
**.minInterferenceTime = 0s
**.displayAddresses = false
