[General]
network = LoRaMotoMesh
rng-class = "cMersenneTwister"
seed-set = ${repetition}
simtime-resolution = -11

# The UCAmI 2019 baseline, with different number of nodes (lower range)
# 200 runs
[Config UCAmI-Nodes-ACK-STOP-low]
repeat = 25
# network features
**.numberOfGateways = 10
**.loRaGW[*].numUdpApps = 1
**.loRaGW[*].packetForwarder.localPort = 2000
**.loRaGW[*].packetForwarder.destPort = 1000
**.loRaGW[*].packetForwarder.destAddresses = "networkServer"

**.networkServer.numUdpApps = 1
**.networkServer.**.evaluateADRinServer = false
**.networkServer.**.acknowledgePackets = true
**.networkServer.udpApp[0].typename = "NetworkServerApp"
**.networkServer.udpApp[0].destPort = 2000
**.networkServer.udpApp[0].localPort = 1000
**.networkServer.udpApp[0].adrMethod = "avg"

**.numberOfNodes = ${numberOfNodes=100, 135, 180, 240, 315, 420, 565, 750}
**.numberOfPacketsToSend = 3
**.numberOfPacketsToForward = 0
**.packetForwarding = 0
**.numberOfHops = 0
**.requestACKfromApp = true
**.stopOnACK = true
**.increaseSF = false
**.packetsPerSF = 1
sim-time-limit = 2h
warmup-period = 1h

**.timeToFirstPacket = 3600s+uniform(0s, 120s)
**.timeToNextPacket = uniform(0s, 300s)
**.alohaChannelModel = false

#nodes features
**.loRaNodes[*].**.initFromDisplayString = false
**.loRaNodes[*].**.evaluateADRinNode = false
**.loRaNodes[*].**initialLoRaSF = intuniform(7,12)
**.loRaNodes[*].**initialLoRaBW = 125 kHz
**.loRaNodes[*].**initialLoRaCR = 4
**.loRaNodes[*].**initialLoRaTP = 10dBm + 3dBm*intuniform(0, 4)

# random deployment of nodes in a rectangular area
**.loRaNodes[*].**.initialX = uniform(0m, 1400m)
**.loRaNodes[*].**.initialY = uniform(0m, 2500m)

#gateway features
**.LoRaGWNic.radio.iAmGateway = true
**.loRaGW[*].**.initFromDisplayString = false
**.loRaGW[*].**.initialX = uniform(0m, 1400m)
**.loRaGW[*].**.initialY = uniform(0m, 2500m)

#power consumption features
**.loRaNodes[*].LoRaNic.radio.energyConsumerType = "LoRaEnergyConsumer"
**.loRaNodes[*].**.energySourceModule = "IdealEpEnergyStorage"
**.loRaNodes[*].LoRaNic.radio.energyConsumer.configFile = xmldoc("energyConsumptionParameters.xml")

#general features
**.sigma = 0
**.constraintAreaMinX = 0m
**.constraintAreaMinY = 0m
**.constraintAreaMinZ = 0m
**.constraintAreaMaxX = 1400m
**.constraintAreaMaxY = 2500m
**.constraintAreaMaxZ = 0m

LoRaMotoMesh.**.radio.separateTransmissionParts = false
LoRaMotoMesh.**.radio.separateReceptionParts = false

**.delayer.config = xmldoc("cloudDelays.xml")
**.radio.radioMediumModule = "LoRaMedium"
**.LoRaMedium.pathLossType = "LoRaLogNormalShadowing"
**.minInterferenceTime = 0s
**.displayAddresses = false




# The UCAmI 2019 baseline, with different number of nodes (middle range)
# 120 runs
[Config UCAmI-Nodes-ACK-STOP-mid]
repeat = 15
# network features
**.numberOfGateways = 10
**.loRaGW[*].numUdpApps = 1
**.loRaGW[*].packetForwarder.localPort = 2000
**.loRaGW[*].packetForwarder.destPort = 1000
**.loRaGW[*].packetForwarder.destAddresses = "networkServer"

**.networkServer.numUdpApps = 1
**.networkServer.**.evaluateADRinServer = false
**.networkServer.**.acknowledgePackets = true
**.networkServer.udpApp[0].typename = "NetworkServerApp"
**.networkServer.udpApp[0].destPort = 2000
**.networkServer.udpApp[0].localPort = 1000
**.networkServer.udpApp[0].adrMethod = "avg"

**.numberOfNodes = ${numberOfNodes=1000, 1350, 1800, 2400, 3150, 4200, 5650, 7500}
**.numberOfPacketsToSend = 3
**.numberOfPacketsToForward = 0
**.packetForwarding = 0
**.numberOfHops = 0
**.requestACKfromApp = true
**.stopOnACK = true
**.increaseSF = false
**.packetsPerSF = 1
sim-time-limit = 2h
warmup-period = 1h

**.timeToFirstPacket = 3600s+uniform(0s, 120s)
**.timeToNextPacket = uniform(0s, 300s)
**.alohaChannelModel = false

#nodes features
**.loRaNodes[*].**.initFromDisplayString = false
**.loRaNodes[*].**.evaluateADRinNode = false
**.loRaNodes[*].**initialLoRaSF = intuniform(7,12)
**.loRaNodes[*].**initialLoRaBW = 125 kHz
**.loRaNodes[*].**initialLoRaCR = 4
**.loRaNodes[*].**initialLoRaTP = 10dBm + 3dBm*intuniform(0, 4)

# random deployment of nodes in a rectangular area
**.loRaNodes[*].**.initialX = uniform(0m, 1400m)
**.loRaNodes[*].**.initialY = uniform(0m, 2500m)

#gateway features
**.LoRaGWNic.radio.iAmGateway = true
**.loRaGW[*].**.initFromDisplayString = false
**.loRaGW[*].**.initialX = uniform(0m, 1400m)
**.loRaGW[*].**.initialY = uniform(0m, 2500m)

#power consumption features
**.loRaNodes[*].LoRaNic.radio.energyConsumerType = "LoRaEnergyConsumer"
**.loRaNodes[*].**.energySourceModule = "IdealEpEnergyStorage"
**.loRaNodes[*].LoRaNic.radio.energyConsumer.configFile = xmldoc("energyConsumptionParameters.xml")

#general features
**.sigma = 0
**.constraintAreaMinX = 0m
**.constraintAreaMinY = 0m
**.constraintAreaMinZ = 0m
**.constraintAreaMaxX = 1400m
**.constraintAreaMaxY = 2500m
**.constraintAreaMaxZ = 0m

LoRaMotoMesh.**.radio.separateTransmissionParts = false
LoRaMotoMesh.**.radio.separateReceptionParts = false

**.delayer.config = xmldoc("cloudDelays.xml")
**.radio.radioMediumModule = "LoRaMedium"
**.LoRaMedium.pathLossType = "LoRaLogNormalShadowing"
**.minInterferenceTime = 0s
**.displayAddresses = false


# The UCAmI 2019 baseline, with different number of nodes (higher range)
# 10 runs
[Config UCAmI-Nodes-ACK-STOP-high]
repeat = 5
# network features
**.numberOfGateways = 10
**.loRaGW[*].numUdpApps = 1
**.loRaGW[*].packetForwarder.localPort = 2000
**.loRaGW[*].packetForwarder.destPort = 1000
**.loRaGW[*].packetForwarder.destAddresses = "networkServer"

**.networkServer.numUdpApps = 1
**.networkServer.**.evaluateADRinServer = false
**.networkServer.**.acknowledgePackets = true
**.networkServer.udpApp[0].typename = "NetworkServerApp"
**.networkServer.udpApp[0].destPort = 2000
**.networkServer.udpApp[0].localPort = 1000
**.networkServer.udpApp[0].adrMethod = "avg"

**.numberOfNodes = ${numberOfNodes=10000, 13500}
**.numberOfPacketsToSend = 3
**.numberOfPacketsToForward = 0
**.packetForwarding = 0
**.numberOfHops = 0
**.requestACKfromApp = true
**.stopOnACK = true
**.increaseSF = false
**.packetsPerSF = 1
sim-time-limit = 2h
warmup-period = 1h

**.timeToFirstPacket = 3600s+uniform(0s, 120s)
**.timeToNextPacket = uniform(0s, 300s)
**.alohaChannelModel = false

#nodes features
**.loRaNodes[*].**.initFromDisplayString = false
**.loRaNodes[*].**.evaluateADRinNode = false
**.loRaNodes[*].**initialLoRaSF = intuniform(7,12)
**.loRaNodes[*].**initialLoRaBW = 125 kHz
**.loRaNodes[*].**initialLoRaCR = 4
**.loRaNodes[*].**initialLoRaTP = 10dBm + 3dBm*intuniform(0, 4)

# random deployment of nodes in a rectangular area
**.loRaNodes[*].**.initialX = uniform(0m, 1400m)
**.loRaNodes[*].**.initialY = uniform(0m, 2500m)

#gateway features
**.LoRaGWNic.radio.iAmGateway = true
**.loRaGW[*].**.initFromDisplayString = false
**.loRaGW[*].**.initialX = uniform(0m, 1400m)
**.loRaGW[*].**.initialY = uniform(0m, 2500m)

#power consumption features
**.loRaNodes[*].LoRaNic.radio.energyConsumerType = "LoRaEnergyConsumer"
**.loRaNodes[*].**.energySourceModule = "IdealEpEnergyStorage"
**.loRaNodes[*].LoRaNic.radio.energyConsumer.configFile = xmldoc("energyConsumptionParameters.xml")

#general features
**.sigma = 0
**.constraintAreaMinX = 0m
**.constraintAreaMinY = 0m
**.constraintAreaMinZ = 0m
**.constraintAreaMaxX = 1400m
**.constraintAreaMaxY = 2500m
**.constraintAreaMaxZ = 0m

LoRaMotoMesh.**.radio.separateTransmissionParts = false
LoRaMotoMesh.**.radio.separateReceptionParts = false

**.delayer.config = xmldoc("cloudDelays.xml")
**.radio.radioMediumModule = "LoRaMedium"
**.LoRaMedium.pathLossType = "LoRaLogNormalShadowing"
**.minInterferenceTime = 0s
**.displayAddresses = false


# The UCAmI 2019 baseline, with different number of nodes (top range)
[Config UCAmI-Nodes-ACK-STOP-top]
# 10 runs
repeat = 5
# network features
**.numberOfGateways = 10
**.loRaGW[*].numUdpApps = 1
**.loRaGW[*].packetForwarder.localPort = 2000
**.loRaGW[*].packetForwarder.destPort = 1000
**.loRaGW[*].packetForwarder.destAddresses = "networkServer"

**.networkServer.numUdpApps = 1
**.networkServer.**.evaluateADRinServer = false
**.networkServer.**.acknowledgePackets = true
**.networkServer.udpApp[0].typename = "NetworkServerApp"
**.networkServer.udpApp[0].destPort = 2000
**.networkServer.udpApp[0].localPort = 1000
**.networkServer.udpApp[0].adrMethod = "avg"

**.numberOfNodes = ${numberOfNodes=18000, 24000}
**.numberOfPacketsToSend = 3
**.numberOfPacketsToForward = 0
**.packetForwarding = 0
**.numberOfHops = 0
**.requestACKfromApp = true
**.stopOnACK = true
**.increaseSF = false
**.packetsPerSF = 1
sim-time-limit = 2h
warmup-period = 1h

**.timeToFirstPacket = 3600s+uniform(0s, 120s)
**.timeToNextPacket = uniform(0s, 300s)
**.alohaChannelModel = false

#nodes features
**.loRaNodes[*].**.initFromDisplayString = false
**.loRaNodes[*].**.evaluateADRinNode = false
**.loRaNodes[*].**initialLoRaSF = intuniform(7,12)
**.loRaNodes[*].**initialLoRaBW = 125 kHz
**.loRaNodes[*].**initialLoRaCR = 4
**.loRaNodes[*].**initialLoRaTP = 10dBm + 3dBm*intuniform(0, 4)

# random deployment of nodes in a rectangular area
**.loRaNodes[*].**.initialX = uniform(0m, 1400m)
**.loRaNodes[*].**.initialY = uniform(0m, 2500m)

#gateway features
**.LoRaGWNic.radio.iAmGateway = true
**.loRaGW[*].**.initFromDisplayString = false
**.loRaGW[*].**.initialX = uniform(0m, 1400m)
**.loRaGW[*].**.initialY = uniform(0m, 2500m)

#power consumption features
**.loRaNodes[*].LoRaNic.radio.energyConsumerType = "LoRaEnergyConsumer"
**.loRaNodes[*].**.energySourceModule = "IdealEpEnergyStorage"
**.loRaNodes[*].LoRaNic.radio.energyConsumer.configFile = xmldoc("energyConsumptionParameters.xml")

#general features
**.sigma = 0
**.constraintAreaMinX = 0m
**.constraintAreaMinY = 0m
**.constraintAreaMinZ = 0m
**.constraintAreaMaxX = 1400m
**.constraintAreaMaxY = 2500m
**.constraintAreaMaxZ = 0m

LoRaMotoMesh.**.radio.separateTransmissionParts = false
LoRaMotoMesh.**.radio.separateReceptionParts = false

**.delayer.config = xmldoc("cloudDelays.xml")
**.radio.radioMediumModule = "LoRaMedium"
**.LoRaMedium.pathLossType = "LoRaLogNormalShadowing"
**.minInterferenceTime = 0s
**.displayAddresses = false

# The UCAmI 2019 baseline with 75 GWs, with different number of nodes (lower range)
# 200 runs
[Config UCAmI75-Nodes-ACK-STOP-low]
repeat = 25
# network features
**.numberOfGateways = 75
**.loRaGW[*].numUdpApps = 1
**.loRaGW[*].packetForwarder.localPort = 2000
**.loRaGW[*].packetForwarder.destPort = 1000
**.loRaGW[*].packetForwarder.destAddresses = "networkServer"

**.networkServer.numUdpApps = 1
**.networkServer.**.evaluateADRinServer = false
**.networkServer.**.acknowledgePackets = true
**.networkServer.udpApp[0].typename = "NetworkServerApp"
**.networkServer.udpApp[0].destPort = 2000
**.networkServer.udpApp[0].localPort = 1000
**.networkServer.udpApp[0].adrMethod = "avg"

**.numberOfNodes = ${numberOfNodes=100, 135, 180, 240, 315, 420, 565, 750}
**.numberOfPacketsToSend = 3
**.numberOfPacketsToForward = 0
**.packetForwarding = 0
**.numberOfHops = 0
**.requestACKfromApp = true
**.stopOnACK = true
**.increaseSF = false
**.packetsPerSF = 1
sim-time-limit = 2h
warmup-period = 1h

**.timeToFirstPacket = 3600s+uniform(0s, 120s)
**.timeToNextPacket = uniform(0s, 300s)
**.alohaChannelModel = false

#nodes features
**.loRaNodes[*].**.initFromDisplayString = false
**.loRaNodes[*].**.evaluateADRinNode = false
**.loRaNodes[*].**initialLoRaSF = intuniform(7,12)
**.loRaNodes[*].**initialLoRaBW = 125 kHz
**.loRaNodes[*].**initialLoRaCR = 4
**.loRaNodes[*].**initialLoRaTP = 10dBm + 3dBm*intuniform(0, 4)

# random deployment of nodes in a rectangular area
**.loRaNodes[*].**.initialX = uniform(0m, 1400m)
**.loRaNodes[*].**.initialY = uniform(0m, 2500m)

#gateway features
**.LoRaGWNic.radio.iAmGateway = true
**.loRaGW[*].**.initFromDisplayString = false
**.loRaGW[*].**.initialX = uniform(0m, 1400m)
**.loRaGW[*].**.initialY = uniform(0m, 2500m)

#power consumption features
**.loRaNodes[*].LoRaNic.radio.energyConsumerType = "LoRaEnergyConsumer"
**.loRaNodes[*].**.energySourceModule = "IdealEpEnergyStorage"
**.loRaNodes[*].LoRaNic.radio.energyConsumer.configFile = xmldoc("energyConsumptionParameters.xml")

#general features
**.sigma = 0
**.constraintAreaMinX = 0m
**.constraintAreaMinY = 0m
**.constraintAreaMinZ = 0m
**.constraintAreaMaxX = 1400m
**.constraintAreaMaxY = 2500m
**.constraintAreaMaxZ = 0m

LoRaMotoMesh.**.radio.separateTransmissionParts = false
LoRaMotoMesh.**.radio.separateReceptionParts = false

**.delayer.config = xmldoc("cloudDelays.xml")
**.radio.radioMediumModule = "LoRaMedium"
**.LoRaMedium.pathLossType = "LoRaLogNormalShadowing"
**.minInterferenceTime = 0s
**.displayAddresses = false



# The UCAmI 2019 baseline with 75 GWs, with different number of nodes (middle range)
# 120 runs
[Config UCAmI75-Nodes-ACK-STOP-mid]
repeat = 15
# network features
**.numberOfGateways = 75
**.loRaGW[*].numUdpApps = 1
**.loRaGW[*].packetForwarder.localPort = 2000
**.loRaGW[*].packetForwarder.destPort = 1000
**.loRaGW[*].packetForwarder.destAddresses = "networkServer"

**.networkServer.numUdpApps = 1
**.networkServer.**.evaluateADRinServer = false
**.networkServer.**.acknowledgePackets = true
**.networkServer.udpApp[0].typename = "NetworkServerApp"
**.networkServer.udpApp[0].destPort = 2000
**.networkServer.udpApp[0].localPort = 1000
**.networkServer.udpApp[0].adrMethod = "avg"

**.numberOfNodes = ${numberOfNodes=1000, 1350, 1800, 2400, 3150, 4200, 5650, 7500}
**.numberOfPacketsToSend = 3
**.numberOfPacketsToForward = 0
**.packetForwarding = 0
**.numberOfHops = 0
**.requestACKfromApp = true
**.stopOnACK = true
**.increaseSF = false
**.packetsPerSF = 1
sim-time-limit = 2h
warmup-period = 1h

**.timeToFirstPacket = 3600s+uniform(0s, 120s)
**.timeToNextPacket = uniform(0s, 300s)
**.alohaChannelModel = false

#nodes features
**.loRaNodes[*].**.initFromDisplayString = false
**.loRaNodes[*].**.evaluateADRinNode = false
**.loRaNodes[*].**initialLoRaSF = intuniform(7,12)
**.loRaNodes[*].**initialLoRaBW = 125 kHz
**.loRaNodes[*].**initialLoRaCR = 4
**.loRaNodes[*].**initialLoRaTP = 10dBm + 3dBm*intuniform(0, 4)

# random deployment of nodes in a rectangular area
**.loRaNodes[*].**.initialX = uniform(0m, 1400m)
**.loRaNodes[*].**.initialY = uniform(0m, 2500m)

#gateway features
**.LoRaGWNic.radio.iAmGateway = true
**.loRaGW[*].**.initFromDisplayString = false
**.loRaGW[*].**.initialX = uniform(0m, 1400m)
**.loRaGW[*].**.initialY = uniform(0m, 2500m)

#power consumption features
**.loRaNodes[*].LoRaNic.radio.energyConsumerType = "LoRaEnergyConsumer"
**.loRaNodes[*].**.energySourceModule = "IdealEpEnergyStorage"
**.loRaNodes[*].LoRaNic.radio.energyConsumer.configFile = xmldoc("energyConsumptionParameters.xml")

#general features
**.sigma = 0
**.constraintAreaMinX = 0m
**.constraintAreaMinY = 0m
**.constraintAreaMinZ = 0m
**.constraintAreaMaxX = 1400m
**.constraintAreaMaxY = 2500m
**.constraintAreaMaxZ = 0m

LoRaMotoMesh.**.radio.separateTransmissionParts = false
LoRaMotoMesh.**.radio.separateReceptionParts = false

**.delayer.config = xmldoc("cloudDelays.xml")
**.radio.radioMediumModule = "LoRaMedium"
**.LoRaMedium.pathLossType = "LoRaLogNormalShadowing"
**.minInterferenceTime = 0s
**.displayAddresses = false



# The UCAmI 2019 baseline with 75 GWs, with different number of nodes (higher range)
# 10 runs
[Config UCAmI75-Nodes-ACK-STOP-high]
repeat = 5
# network features
**.numberOfGateways = 75
**.loRaGW[*].numUdpApps = 1
**.loRaGW[*].packetForwarder.localPort = 2000
**.loRaGW[*].packetForwarder.destPort = 1000
**.loRaGW[*].packetForwarder.destAddresses = "networkServer"

**.networkServer.numUdpApps = 1
**.networkServer.**.evaluateADRinServer = false
**.networkServer.**.acknowledgePackets = true
**.networkServer.udpApp[0].typename = "NetworkServerApp"
**.networkServer.udpApp[0].destPort = 2000
**.networkServer.udpApp[0].localPort = 1000
**.networkServer.udpApp[0].adrMethod = "avg"

**.numberOfNodes = ${numberOfNodes=10000, 13500}
**.numberOfPacketsToSend = 3
**.numberOfPacketsToForward = 0
**.packetForwarding = 0
**.numberOfHops = 0
**.requestACKfromApp = true
**.stopOnACK = true
**.increaseSF = false
**.packetsPerSF = 1
sim-time-limit = 2h
warmup-period = 1h

**.timeToFirstPacket = 3600s+uniform(0s, 120s)
**.timeToNextPacket = uniform(0s, 300s)
**.alohaChannelModel = false

#nodes features
**.loRaNodes[*].**.initFromDisplayString = false
**.loRaNodes[*].**.evaluateADRinNode = false
**.loRaNodes[*].**initialLoRaSF = intuniform(7,12)
**.loRaNodes[*].**initialLoRaBW = 125 kHz
**.loRaNodes[*].**initialLoRaCR = 4
**.loRaNodes[*].**initialLoRaTP = 10dBm + 3dBm*intuniform(0, 4)

# random deployment of nodes in a rectangular area
**.loRaNodes[*].**.initialX = uniform(0m, 1400m)
**.loRaNodes[*].**.initialY = uniform(0m, 2500m)

#gateway features
**.LoRaGWNic.radio.iAmGateway = true
**.loRaGW[*].**.initFromDisplayString = false
**.loRaGW[*].**.initialX = uniform(0m, 1400m)
**.loRaGW[*].**.initialY = uniform(0m, 2500m)

#power consumption features
**.loRaNodes[*].LoRaNic.radio.energyConsumerType = "LoRaEnergyConsumer"
**.loRaNodes[*].**.energySourceModule = "IdealEpEnergyStorage"
**.loRaNodes[*].LoRaNic.radio.energyConsumer.configFile = xmldoc("energyConsumptionParameters.xml")

#general features
**.sigma = 0
**.constraintAreaMinX = 0m
**.constraintAreaMinY = 0m
**.constraintAreaMinZ = 0m
**.constraintAreaMaxX = 1400m
**.constraintAreaMaxY = 2500m
**.constraintAreaMaxZ = 0m

LoRaMotoMesh.**.radio.separateTransmissionParts = false
LoRaMotoMesh.**.radio.separateReceptionParts = false

**.delayer.config = xmldoc("cloudDelays.xml")
**.radio.radioMediumModule = "LoRaMedium"
**.LoRaMedium.pathLossType = "LoRaLogNormalShadowing"
**.minInterferenceTime = 0s
**.displayAddresses = false



# The UCAmI 2019 baseline with 75 GWs, with different number of nodes (top range)
[Config UCAmI75-Nodes-ACK-STOP-top]
# 10 runs
repeat = 5
# network features
**.numberOfGateways = 75
**.loRaGW[*].numUdpApps = 1
**.loRaGW[*].packetForwarder.localPort = 2000
**.loRaGW[*].packetForwarder.destPort = 1000
**.loRaGW[*].packetForwarder.destAddresses = "networkServer"

**.networkServer.numUdpApps = 1
**.networkServer.**.evaluateADRinServer = false
**.networkServer.**.acknowledgePackets = true
**.networkServer.udpApp[0].typename = "NetworkServerApp"
**.networkServer.udpApp[0].destPort = 2000
**.networkServer.udpApp[0].localPort = 1000
**.networkServer.udpApp[0].adrMethod = "avg"

**.numberOfNodes = ${numberOfNodes=18000, 24000}
**.numberOfPacketsToSend = 3
**.numberOfPacketsToForward = 0
**.packetForwarding = 0
**.numberOfHops = 0
**.requestACKfromApp = true
**.stopOnACK = true
**.increaseSF = false
**.packetsPerSF = 1
sim-time-limit = 2h
warmup-period = 1h

**.timeToFirstPacket = 3600s+uniform(0s, 120s)
**.timeToNextPacket = uniform(0s, 300s)
**.alohaChannelModel = false

#nodes features
**.loRaNodes[*].**.initFromDisplayString = false
**.loRaNodes[*].**.evaluateADRinNode = false
**.loRaNodes[*].**initialLoRaSF = intuniform(7,12)
**.loRaNodes[*].**initialLoRaBW = 125 kHz
**.loRaNodes[*].**initialLoRaCR = 4
**.loRaNodes[*].**initialLoRaTP = 10dBm + 3dBm*intuniform(0, 4)

# random deployment of nodes in a rectangular area
**.loRaNodes[*].**.initialX = uniform(0m, 1400m)
**.loRaNodes[*].**.initialY = uniform(0m, 2500m)

#gateway features
**.LoRaGWNic.radio.iAmGateway = true
**.loRaGW[*].**.initFromDisplayString = false
**.loRaGW[*].**.initialX = uniform(0m, 1400m)
**.loRaGW[*].**.initialY = uniform(0m, 2500m)

#power consumption features
**.loRaNodes[*].LoRaNic.radio.energyConsumerType = "LoRaEnergyConsumer"
**.loRaNodes[*].**.energySourceModule = "IdealEpEnergyStorage"
**.loRaNodes[*].LoRaNic.radio.energyConsumer.configFile = xmldoc("energyConsumptionParameters.xml")

#general features
**.sigma = 0
**.constraintAreaMinX = 0m
**.constraintAreaMinY = 0m
**.constraintAreaMinZ = 0m
**.constraintAreaMaxX = 1400m
**.constraintAreaMaxY = 2500m
**.constraintAreaMaxZ = 0m

LoRaMotoMesh.**.radio.separateTransmissionParts = false
LoRaMotoMesh.**.radio.separateReceptionParts = false

**.delayer.config = xmldoc("cloudDelays.xml")
**.radio.radioMediumModule = "LoRaMedium"
**.LoRaMedium.pathLossType = "LoRaLogNormalShadowing"
**.minInterferenceTime = 0s
**.displayAddresses = false



# The UCAmI 2019 baseline, with different number of gateways
[Config UCAmI-GWs-ACK-STOP-test]
repeat = 5
# network features
**.numberOfGateways = ${numberOfGateways= 1, 2, 3, 4, 5, 6, 8, 10, 12, 16, 20, 24, 32, 40, 48, 64, 75, 80, 100, 128, 160, 192, 256, 320, 384, 512, 640, 750, 1000} #29
**.loRaGW[*].numUdpApps = 1
**.loRaGW[*].packetForwarder.localPort = 2000
**.loRaGW[*].packetForwarder.destPort = 1000
**.loRaGW[*].packetForwarder.destAddresses = "networkServer"

**.networkServer.numUdpApps = 1
**.networkServer.**.evaluateADRinServer = false
**.networkServer.**.acknowledgePackets = true
**.networkServer.udpApp[0].typename = "NetworkServerApp"
**.networkServer.udpApp[0].destPort = 2000
**.networkServer.udpApp[0].localPort = 1000
**.networkServer.udpApp[0].adrMethod = "avg"

**.numberOfNodes = 750
**.numberOfPacketsToSend = 3
**.numberOfPacketsToForward = 0
**.packetForwarding = 0
**.numberOfHops = 0
**.requestACKfromApp = true
**.stopOnACK = true
**.increaseSF = false
**.packetsPerSF = 1
sim-time-limit = 2h
warmup-period = 1h

**.timeToFirstPacket = 3600s+uniform(0s, 120s)
**.timeToNextPacket = uniform(0s, 300s)
**.alohaChannelModel = false

#nodes features
**.loRaNodes[*].**.initFromDisplayString = false
**.loRaNodes[*].**.evaluateADRinNode = false
**.loRaNodes[*].**initialLoRaSF = intuniform(7,12)
**.loRaNodes[*].**initialLoRaBW = 125 kHz
**.loRaNodes[*].**initialLoRaCR = 4
**.loRaNodes[*].**initialLoRaTP = 10dBm + 3dBm*intuniform(0, 4)

# random deployment of nodes in a rectangular area
**.loRaNodes[*].**.initialX = uniform(0m, 1400m)
**.loRaNodes[*].**.initialY = uniform(0m, 2500m)

#gateway features
**.LoRaGWNic.radio.iAmGateway = true
**.loRaGW[*].**.initFromDisplayString = false
**.loRaGW[*].**.initialX = uniform(0m, 1400m)
**.loRaGW[*].**.initialY = uniform(0m, 2500m)

#power consumption features
**.loRaNodes[*].LoRaNic.radio.energyConsumerType = "LoRaEnergyConsumer"
**.loRaNodes[*].**.energySourceModule = "IdealEpEnergyStorage"
**.loRaNodes[*].LoRaNic.radio.energyConsumer.configFile = xmldoc("energyConsumptionParameters.xml")

#general features
**.sigma = 0
**.constraintAreaMinX = 0m
**.constraintAreaMinY = 0m
**.constraintAreaMinZ = 0m
**.constraintAreaMaxX = 1400m
**.constraintAreaMaxY = 2500m
**.constraintAreaMaxZ = 0m

LoRaMotoMesh.**.radio.separateTransmissionParts = false
LoRaMotoMesh.**.radio.separateReceptionParts = false

**.delayer.config = xmldoc("cloudDelays.xml")
**.radio.radioMediumModule = "LoRaMedium"
**.LoRaMedium.pathLossType = "LoRaLogNormalShadowing"
**.minInterferenceTime = 0s
**.displayAddresses = false



# The UCAmI 2019 baseline, with different number of gateways
[Config UCAmI-GWs-ACK-STOP]
repeat = 5
# network features
**.numberOfGateways = ${numberOfGateways= 1, 2, 3, 4, 5, 6, 8, 10, 12, 16, 20, 24, 32, 40, 48, 64, 75, 80, 100, 128, 160, 192, 256, 320, 384, 512, 640, 750, 1000} #29
**.loRaGW[*].numUdpApps = 1
**.loRaGW[*].packetForwarder.localPort = 2000
**.loRaGW[*].packetForwarder.destPort = 1000
**.loRaGW[*].packetForwarder.destAddresses = "networkServer"

**.networkServer.numUdpApps = 1
**.networkServer.**.evaluateADRinServer = false
**.networkServer.**.acknowledgePackets = true
**.networkServer.udpApp[0].typename = "NetworkServerApp"
**.networkServer.udpApp[0].destPort = 2000
**.networkServer.udpApp[0].localPort = 1000
**.networkServer.udpApp[0].adrMethod = "avg"

**.numberOfNodes = 7500
**.numberOfPacketsToSend = 3
**.numberOfPacketsToForward = 0
**.packetForwarding = 0
**.numberOfHops = 0
**.requestACKfromApp = true
**.stopOnACK = true
**.increaseSF = false
**.packetsPerSF = 1
sim-time-limit = 2h
warmup-period = 1h

**.timeToFirstPacket = 3600s+uniform(0s, 120s)
**.timeToNextPacket = uniform(0s, 300s)
**.alohaChannelModel = false

#nodes features
**.loRaNodes[*].**.initFromDisplayString = false
**.loRaNodes[*].**.evaluateADRinNode = false
**.loRaNodes[*].**initialLoRaSF = intuniform(7,12)
**.loRaNodes[*].**initialLoRaBW = 125 kHz
**.loRaNodes[*].**initialLoRaCR = 4
**.loRaNodes[*].**initialLoRaTP = 10dBm + 3dBm*intuniform(0, 4)

# random deployment of nodes in a rectangular area
**.loRaNodes[*].**.initialX = uniform(0m, 1400m)
**.loRaNodes[*].**.initialY = uniform(0m, 2500m)

#gateway features
**.LoRaGWNic.radio.iAmGateway = true
**.loRaGW[*].**.initFromDisplayString = false
**.loRaGW[*].**.initialX = uniform(0m, 1400m)
**.loRaGW[*].**.initialY = uniform(0m, 2500m)

#power consumption features
**.loRaNodes[*].LoRaNic.radio.energyConsumerType = "LoRaEnergyConsumer"
**.loRaNodes[*].**.energySourceModule = "IdealEpEnergyStorage"
**.loRaNodes[*].LoRaNic.radio.energyConsumer.configFile = xmldoc("energyConsumptionParameters.xml")

#general features
**.sigma = 0
**.constraintAreaMinX = 0m
**.constraintAreaMinY = 0m
**.constraintAreaMinZ = 0m
**.constraintAreaMaxX = 1400m
**.constraintAreaMaxY = 2500m
**.constraintAreaMaxZ = 0m

LoRaMotoMesh.**.radio.separateTransmissionParts = false
LoRaMotoMesh.**.radio.separateReceptionParts = false

**.delayer.config = xmldoc("cloudDelays.xml")
**.radio.radioMediumModule = "LoRaMedium"
**.LoRaMedium.pathLossType = "LoRaLogNormalShadowing"
**.minInterferenceTime = 0s
**.displayAddresses = false



# The UCAmI 2019 baseline, sending different number of packets
[Config UCAmI-RTx-ACK-STOP-test]
repeat = 5
# network features
**.numberOfGateways = 10
**.loRaGW[*].numUdpApps = 1
**.loRaGW[*].packetForwarder.localPort = 2000
**.loRaGW[*].packetForwarder.destPort = 1000
**.loRaGW[*].packetForwarder.destAddresses = "networkServer"

**.networkServer.numUdpApps = 1
**.networkServer.**.evaluateADRinServer = false
**.networkServer.**.acknowledgePackets = true
**.networkServer.udpApp[0].typename = "NetworkServerApp"
**.networkServer.udpApp[0].destPort = 2000
**.networkServer.udpApp[0].localPort = 1000
**.networkServer.udpApp[0].adrMethod = "avg"

**.numberOfNodes = 750
**.numberOfPacketsToSend = ${numberOfPacketsToSend = 1, 2, 3, 4, 5, 6, 7, 8, 9, 10, 11, 12, 13, 14, 15, 16, 17, 18, 19, 20} #0 means infinite number of packets
**.numberOfPacketsToForward = 0
**.packetForwarding = 0
**.numberOfHops = 0
**.requestACKfromApp = true
**.stopOnACK = true
**.increaseSF = false
**.packetsPerSF = 1
sim-time-limit = 2h
warmup-period = 1h

**.timeToFirstPacket = 3600s+uniform(0s, 120s)
**.timeToNextPacket = uniform(0s, 300s)
**.alohaChannelModel = false

#nodes features
**.loRaNodes[*].**.initFromDisplayString = false
**.loRaNodes[*].**.evaluateADRinNode = false
**.loRaNodes[*].**initialLoRaSF = intuniform(7,12)
**.loRaNodes[*].**initialLoRaBW = 125 kHz
**.loRaNodes[*].**initialLoRaCR = 4
**.loRaNodes[*].**initialLoRaTP = 10dBm + 3dBm*intuniform(0, 4)

# random deployment of nodes in a rectangular area
**.loRaNodes[*].**.initialX = uniform(0m, 1400m)
**.loRaNodes[*].**.initialY = uniform(0m, 2500m)

#gateway features
**.LoRaGWNic.radio.iAmGateway = true
**.loRaGW[*].**.initFromDisplayString = false
**.loRaGW[*].**.initialX = uniform(0m, 1400m)
**.loRaGW[*].**.initialY = uniform(0m, 2500m)

#power consumption features
**.loRaNodes[*].LoRaNic.radio.energyConsumerType = "LoRaEnergyConsumer"
**.loRaNodes[*].**.energySourceModule = "IdealEpEnergyStorage"
**.loRaNodes[*].LoRaNic.radio.energyConsumer.configFile = xmldoc("energyConsumptionParameters.xml")

#general features
**.sigma = 0
**.constraintAreaMinX = 0m
**.constraintAreaMinY = 0m
**.constraintAreaMinZ = 0m
**.constraintAreaMaxX = 1400m
**.constraintAreaMaxY = 2500m
**.constraintAreaMaxZ = 0m

LoRaMotoMesh.**.radio.separateTransmissionParts = false
LoRaMotoMesh.**.radio.separateReceptionParts = false

**.delayer.config = xmldoc("cloudDelays.xml")
**.radio.radioMediumModule = "LoRaMedium"
**.LoRaMedium.pathLossType = "LoRaLogNormalShadowing"
**.minInterferenceTime = 0s
**.displayAddresses = false



# The UCAmI 2019 baseline, sending different number of packets
[Config UCAmI-RTx-ACK-STOP]
repeat = 5
# network features
**.numberOfGateways = 10
**.loRaGW[*].numUdpApps = 1
**.loRaGW[*].packetForwarder.localPort = 2000
**.loRaGW[*].packetForwarder.destPort = 1000
**.loRaGW[*].packetForwarder.destAddresses = "networkServer"

**.networkServer.numUdpApps = 1
**.networkServer.**.evaluateADRinServer = false
**.networkServer.**.acknowledgePackets = true
**.networkServer.udpApp[0].typename = "NetworkServerApp"
**.networkServer.udpApp[0].destPort = 2000
**.networkServer.udpApp[0].localPort = 1000
**.networkServer.udpApp[0].adrMethod = "avg"

**.numberOfNodes = 7500
**.numberOfPacketsToSend = ${numberOfPacketsToSend = 1, 2, 3, 4, 5, 6, 7, 8, 9, 10, 11, 12, 13, 14, 15, 16, 17, 18, 19, 20} #0 means infinite number of packets
**.numberOfPacketsToForward = 0
**.packetForwarding = 0
**.numberOfHops = 0
**.requestACKfromApp = true
**.stopOnACK = true
**.increaseSF = false
**.packetsPerSF = 1
sim-time-limit = 2h
warmup-period = 1h

**.timeToFirstPacket = 3600s+uniform(0s, 120s)
**.timeToNextPacket = uniform(0s, 300s)
**.alohaChannelModel = false

#nodes features
**.loRaNodes[*].**.initFromDisplayString = false
**.loRaNodes[*].**.evaluateADRinNode = false
**.loRaNodes[*].**initialLoRaSF = intuniform(7,12)
**.loRaNodes[*].**initialLoRaBW = 125 kHz
**.loRaNodes[*].**initialLoRaCR = 4
**.loRaNodes[*].**initialLoRaTP = 10dBm + 3dBm*intuniform(0, 4)

# random deployment of nodes in a rectangular area
**.loRaNodes[*].**.initialX = uniform(0m, 1400m)
**.loRaNodes[*].**.initialY = uniform(0m, 2500m)

#gateway features
**.LoRaGWNic.radio.iAmGateway = true
**.loRaGW[*].**.initFromDisplayString = false
**.loRaGW[*].**.initialX = uniform(0m, 1400m)
**.loRaGW[*].**.initialY = uniform(0m, 2500m)

#power consumption features
**.loRaNodes[*].LoRaNic.radio.energyConsumerType = "LoRaEnergyConsumer"
**.loRaNodes[*].**.energySourceModule = "IdealEpEnergyStorage"